# Generated by REPEAT Assigner based on pymatgen
calf-20
_audit_creation_date              2025-09-29
_audit_creation_method            REPEAT_Assigner
_cell_length_a                    8.936730
_cell_length_b                    9.843530
_cell_length_c                    9.462330
_cell_angle_alpha                 90.000000
_cell_angle_beta                  116.636010
_cell_angle_gamma                 90.000000
_cell_volume                      744.051924
_symmetry_space_group_name_H-M    P1
_symmetry_Int_Tables_number       1
loop_
    _symmetry_equiv_pos_site_id
    _symmetry_equiv_pos_as_xyz
    1  x,y,z
loop_
    _atom_site_type_symbol
    _atom_site_label
    _atom_site_fract_x
    _atom_site_fract_y
    _atom_site_fract_z
    _atom_type_partial_charge
    Zn  Zn1  0.175624  0.441433  0.437604  0.833504
    Zn  Zn2  0.824376  0.941433  0.062396  0.833395
    Zn  Zn3  0.824376  0.558567  0.562396  0.833388
    Zn  Zn4  0.175624  0.058567  0.937604  0.833406
    O   O1   0.411630  0.429620  0.613730  -0.568178
    O   O2   0.588370  0.929620  0.886270  -0.568113
    O   O3   0.588370  0.570380  0.386270  -0.568088
    O   O4   0.411630  0.070380  0.113730  -0.568114
    N   N1   0.025730  0.605720  0.361030  -0.334728
    N   N2   0.974270  0.105720  0.138970  -0.334752
    N   N3   0.974270  0.394280  0.638970  -0.334784
    N   N4   0.025730  0.894280  0.861030  -0.334778
    C   C1   0.526530  0.472430  0.583330  0.499144
    C   C2   0.473470  0.972430  0.916670  0.499120
    C   C3   0.473470  0.527570  0.416670  0.499102
    C   C4   0.526530  0.027570  0.083330  0.499132
    O   O5   0.678720  0.474120  0.677030  -0.477802
    O   O6   0.321280  0.974120  0.822970  -0.477834
    O   O7   0.321280  0.525880  0.322970  -0.477860
    O   O8   0.678720  0.025880  0.177030  -0.477837
    N   N5   0.904670  0.644320  0.404930  -0.159902
    N   N6   0.095330  0.144320  0.095070  -0.159891
    N   N7   0.095330  0.355680  0.595070  -0.159810
    N   N8   0.904670  0.855680  0.904930  -0.159854
    C   C5   0.831770  0.750930  0.318430  0.243962
    C   C6   0.168230  0.250930  0.181570  0.243984
    C   C7   0.168230  0.249070  0.681570  0.243870
    C   C8   0.831770  0.749070  0.818430  0.243927
    N   N9   0.896170  0.786120  0.220030  -0.420841
    N   N10  0.103830  0.286120  0.279970  -0.420951
    N   N11  0.103830  0.213880  0.779970  -0.420840
    N   N12  0.896170  0.713880  0.720030  -0.420878
    C   C9   0.015440  0.692030  0.251230  0.236143
    C   C10  0.984560  0.192030  0.248770  0.236265
    C   C11  0.984560  0.307970  0.748770  0.236232
    C   C12  0.015440  0.807970  0.751230  0.236257
    H   H1   0.730027  0.805278  0.326203  0.080565
    H   H2   0.269973  0.305278  0.173797  0.080567
    H   H3   0.269973  0.194722  0.673797  0.080600
    H   H4   0.730027  0.694722  0.826203  0.080575
    H   H5   0.096569  0.686011  0.193660  0.068211
    H   H6   0.903431  0.186011  0.306340  0.068158
    H   H7   0.903431  0.313989  0.806340  0.068167
    H   H8   0.096569  0.813989  0.693660  0.068165
