data_mfi

_cell_length_a  20.02200000
_cell_length_b  19.89900000
_cell_length_c  13.38300000
_cell_angle_alpha  90.00000000
_cell_angle_beta  90.00000000
_cell_angle_gamma  90.00000000

_symmetry_space_group_name_Hall  P 1
_symmetry_space_group_name_H-M P 1
_symmetry_Int_Tables_number 1

loop_
_atom_site_label
_atom_site_type_symbol
_atom_site_forcefield_label
_atom_site_fract_x
_atom_site_fract_y
_atom_site_fract_z
_atom_site_charge
Si1      Si   Si      0.42238000   0.05650000   0.66402000   2.05000000
Si1      Si   Si      0.92238000   0.44350000   0.83598000   2.05000000
Si1      Si   Si      0.57762000   0.55650000   0.33598000   2.05000000
Si1      Si   Si      0.07762000   0.94350000   0.16402000   2.05000000
Si1      Si   Si      0.57762000   0.94350000   0.33598000   2.05000000
Si1      Si   Si      0.07762000   0.55650000   0.16402000   2.05000000
Si1      Si   Si      0.42238000   0.44350000   0.66402000   2.05000000
Si1      Si   Si      0.92238000   0.05650000   0.83598000   2.05000000
Si2      Si   Si      0.30716000   0.02772000   0.81070000   2.05000000
Si2      Si   Si      0.80716000   0.47228000   0.68930000   2.05000000
Si2      Si   Si      0.69284000   0.52772000   0.18930000   2.05000000
Si2      Si   Si      0.19284000   0.97228000   0.31070000   2.05000000
Si2      Si   Si      0.69284000   0.97228000   0.18930000   2.05000000
Si2      Si   Si      0.19284000   0.52772000   0.31070000   2.05000000
Si2      Si   Si      0.30716000   0.47228000   0.81070000   2.05000000
Si2      Si   Si      0.80716000   0.02772000   0.68930000   2.05000000
Si3      Si   Si      0.27911000   0.06127000   0.03120000   2.05000000
Si3      Si   Si      0.77911000   0.43873000   0.46880000   2.05000000
Si3      Si   Si      0.72089000   0.56127000   0.96880000   2.05000000
Si3      Si   Si      0.22089000   0.93873000   0.53120000   2.05000000
Si3      Si   Si      0.72089000   0.93873000   0.96880000   2.05000000
Si3      Si   Si      0.22089000   0.56127000   0.53120000   2.05000000
Si3      Si   Si      0.27911000   0.43873000   0.03120000   2.05000000
Si3      Si   Si      0.77911000   0.06127000   0.46880000   2.05000000
Si4      Si   Si      0.12215000   0.06298000   0.02670000   2.05000000
Si4      Si   Si      0.62215000   0.43702000   0.47330000   2.05000000
Si4      Si   Si      0.87785000   0.56298000   0.97330000   2.05000000
Si4      Si   Si      0.37785000   0.93702000   0.52670000   2.05000000
Si4      Si   Si      0.87785000   0.93702000   0.97330000   2.05000000
Si4      Si   Si      0.37785000   0.56298000   0.52670000   2.05000000
Si4      Si   Si      0.12215000   0.43702000   0.02670000   2.05000000
Si4      Si   Si      0.62215000   0.06298000   0.47330000   2.05000000
Si5      Si   Si      0.07128000   0.02722000   0.81449000   2.05000000
Si5      Si   Si      0.57128000   0.47278000   0.68551000   2.05000000
Si5      Si   Si      0.92872000   0.52722000   0.18551000   2.05000000
Si5      Si   Si      0.42872000   0.97278000   0.31449000   2.05000000
Si5      Si   Si      0.92872000   0.97278000   0.18551000   2.05000000
Si5      Si   Si      0.42872000   0.52722000   0.31449000   2.05000000
Si5      Si   Si      0.07128000   0.47278000   0.81449000   2.05000000
Si5      Si   Si      0.57128000   0.02722000   0.68551000   2.05000000
Si6      Si   Si      0.18641000   0.05896000   0.67182000   2.05000000
Si6      Si   Si      0.68641000   0.44104000   0.82818000   2.05000000
Si6      Si   Si      0.81359000   0.55896000   0.32818000   2.05000000
Si6      Si   Si      0.31359000   0.94104000   0.17182000   2.05000000
Si6      Si   Si      0.81359000   0.94104000   0.32818000   2.05000000
Si6      Si   Si      0.31359000   0.55896000   0.17182000   2.05000000
Si6      Si   Si      0.18641000   0.44104000   0.67182000   2.05000000
Si6      Si   Si      0.68641000   0.05896000   0.82818000   2.05000000
Si7      Si   Si      0.42265000   0.82750000   0.67282000   2.05000000
Si7      Si   Si      0.92265000   0.67250000   0.82718000   2.05000000
Si7      Si   Si      0.57735000   0.32750000   0.32718000   2.05000000
Si7      Si   Si      0.07735000   0.17250000   0.17282000   2.05000000
Si7      Si   Si      0.57735000   0.17250000   0.32718000   2.05000000
Si7      Si   Si      0.07735000   0.32750000   0.17282000   2.05000000
Si7      Si   Si      0.42265000   0.67250000   0.67282000   2.05000000
Si7      Si   Si      0.92265000   0.82750000   0.82718000   2.05000000
Si8      Si   Si      0.30778000   0.86984000   0.81452000   2.05000000
Si8      Si   Si      0.80778000   0.63016000   0.68548000   2.05000000
Si8      Si   Si      0.69222000   0.36984000   0.18548000   2.05000000
Si8      Si   Si      0.19222000   0.13016000   0.31452000   2.05000000
Si8      Si   Si      0.69222000   0.13016000   0.18548000   2.05000000
Si8      Si   Si      0.19222000   0.36984000   0.31452000   2.05000000
Si8      Si   Si      0.30778000   0.63016000   0.81452000   2.05000000
Si8      Si   Si      0.80778000   0.86984000   0.68548000   2.05000000
Si9      Si   Si      0.27554000   0.82721000   0.03109000   2.05000000
Si9      Si   Si      0.77554000   0.67279000   0.46891000   2.05000000
Si9      Si   Si      0.72446000   0.32721000   0.96891000   2.05000000
Si9      Si   Si      0.22446000   0.17279000   0.53109000   2.05000000
Si9      Si   Si      0.72446000   0.17279000   0.96891000   2.05000000
Si9      Si   Si      0.22446000   0.32721000   0.53109000   2.05000000
Si9      Si   Si      0.27554000   0.67279000   0.03109000   2.05000000
Si9      Si   Si      0.77554000   0.82721000   0.46891000   2.05000000
Si10     Si   Si      0.12058000   0.82690000   0.02979000   2.05000000
Si10     Si   Si      0.62058000   0.67310000   0.47021000   2.05000000
Si10     Si   Si      0.87942000   0.32690000   0.97021000   2.05000000
Si10     Si   Si      0.37942000   0.17310000   0.52979000   2.05000000
Si10     Si   Si      0.87942000   0.17310000   0.97021000   2.05000000
Si10     Si   Si      0.37942000   0.32690000   0.52979000   2.05000000
Si10     Si   Si      0.12058000   0.67310000   0.02979000   2.05000000
Si10     Si   Si      0.62058000   0.82690000   0.47021000   2.05000000
Si11     Si   Si      0.07044000   0.86963000   0.81800000   2.05000000
Si11     Si   Si      0.57044000   0.63037000   0.68200000   2.05000000
Si11     Si   Si      0.92956000   0.36963000   0.18200000   2.05000000
Si11     Si   Si      0.42956000   0.13037000   0.31800000   2.05000000
Si11     Si   Si      0.92956000   0.13037000   0.18200000   2.05000000
Si11     Si   Si      0.42956000   0.36963000   0.31800000   2.05000000
Si11     Si   Si      0.07044000   0.63037000   0.81800000   2.05000000
Si11     Si   Si      0.57044000   0.86963000   0.68200000   2.05000000
Si12     Si   Si      0.18706000   0.82673000   0.68067000   2.05000000
Si12     Si   Si      0.68706000   0.67327000   0.81933000   2.05000000
Si12     Si   Si      0.81294000   0.32673000   0.31933000   2.05000000
Si12     Si   Si      0.31294000   0.17327000   0.18067000   2.05000000
Si12     Si   Si      0.81294000   0.17327000   0.31933000   2.05000000
Si12     Si   Si      0.31294000   0.32673000   0.18067000   2.05000000
Si12     Si   Si      0.18706000   0.67327000   0.68067000   2.05000000
Si12     Si   Si      0.68706000   0.82673000   0.81933000   2.05000000
O1       O    O       0.37260000   0.05340000   0.75580000  -1.02500000
O1       O    O       0.87260000   0.44660000   0.74420000  -1.02500000
O1       O    O       0.62740000   0.55340000   0.24420000  -1.02500000
O1       O    O       0.12740000   0.94660000   0.25580000  -1.02500000
O1       O    O       0.62740000   0.94660000   0.24420000  -1.02500000
O1       O    O       0.12740000   0.55340000   0.25580000  -1.02500000
O1       O    O       0.37260000   0.44660000   0.75580000  -1.02500000
O1       O    O       0.87260000   0.05340000   0.74420000  -1.02500000
O2       O    O       0.30840000   0.05870000   0.92110000  -1.02500000
O2       O    O       0.80840000   0.44130000   0.57890000  -1.02500000
O2       O    O       0.69160000   0.55870000   0.07890000  -1.02500000
O2       O    O       0.19160000   0.94130000   0.42110000  -1.02500000
O2       O    O       0.69160000   0.94130000   0.07890000  -1.02500000
O2       O    O       0.19160000   0.55870000   0.42110000  -1.02500000
O2       O    O       0.30840000   0.44130000   0.92110000  -1.02500000
O2       O    O       0.80840000   0.05870000   0.57890000  -1.02500000
O3       O    O       0.20070000   0.05920000   0.02890000  -1.02500000
O3       O    O       0.70070000   0.44080000   0.47110000  -1.02500000
O3       O    O       0.79930000   0.55920000   0.97110000  -1.02500000
O3       O    O       0.29930000   0.94080000   0.52890000  -1.02500000
O3       O    O       0.79930000   0.94080000   0.97110000  -1.02500000
O3       O    O       0.29930000   0.55920000   0.52890000  -1.02500000
O3       O    O       0.20070000   0.44080000   0.02890000  -1.02500000
O3       O    O       0.70070000   0.05920000   0.47110000  -1.02500000
O4       O    O       0.09690000   0.06110000   0.91440000  -1.02500000
O4       O    O       0.59690000   0.43890000   0.58560000  -1.02500000
O4       O    O       0.90310000   0.56110000   0.08560000  -1.02500000
O4       O    O       0.40310000   0.93890000   0.41440000  -1.02500000
O4       O    O       0.90310000   0.93890000   0.08560000  -1.02500000
O4       O    O       0.40310000   0.56110000   0.41440000  -1.02500000
O4       O    O       0.09690000   0.43890000   0.91440000  -1.02500000
O4       O    O       0.59690000   0.06110000   0.58560000  -1.02500000
O5       O    O       0.11490000   0.05410000   0.72370000  -1.02500000
O5       O    O       0.61490000   0.44590000   0.77630000  -1.02500000
O5       O    O       0.88510000   0.55410000   0.27630000  -1.02500000
O5       O    O       0.38510000   0.94590000   0.22370000  -1.02500000
O5       O    O       0.88510000   0.94590000   0.27630000  -1.02500000
O5       O    O       0.38510000   0.55410000   0.22370000  -1.02500000
O5       O    O       0.11490000   0.44590000   0.72370000  -1.02500000
O5       O    O       0.61490000   0.05410000   0.77630000  -1.02500000
O6       O    O       0.24350000   0.05530000   0.75400000  -1.02500000
O6       O    O       0.74350000   0.44470000   0.74600000  -1.02500000
O6       O    O       0.75650000   0.55530000   0.24600000  -1.02500000
O6       O    O       0.25650000   0.94470000   0.25400000  -1.02500000
O6       O    O       0.75650000   0.94470000   0.24600000  -1.02500000
O6       O    O       0.25650000   0.55530000   0.25400000  -1.02500000
O6       O    O       0.24350000   0.44470000   0.75400000  -1.02500000
O6       O    O       0.74350000   0.05530000   0.74600000  -1.02500000
O7       O    O       0.37420000   0.84390000   0.76280000  -1.02500000
O7       O    O       0.87420000   0.65610000   0.73720000  -1.02500000
O7       O    O       0.62580000   0.34390000   0.23720000  -1.02500000
O7       O    O       0.12580000   0.15610000   0.26280000  -1.02500000
O7       O    O       0.62580000   0.15610000   0.23720000  -1.02500000
O7       O    O       0.12580000   0.34390000   0.26280000  -1.02500000
O7       O    O       0.37420000   0.65610000   0.76280000  -1.02500000
O7       O    O       0.87420000   0.84390000   0.73720000  -1.02500000
O8       O    O       0.30850000   0.84480000   0.92720000  -1.02500000
O8       O    O       0.80850000   0.65520000   0.57280000  -1.02500000
O8       O    O       0.69150000   0.34480000   0.07280000  -1.02500000
O8       O    O       0.19150000   0.15520000   0.42720000  -1.02500000
O8       O    O       0.69150000   0.15520000   0.07280000  -1.02500000
O8       O    O       0.19150000   0.34480000   0.42720000  -1.02500000
O8       O    O       0.30850000   0.65520000   0.92720000  -1.02500000
O8       O    O       0.80850000   0.84480000   0.57280000  -1.02500000
O9       O    O       0.19800000   0.84460000   0.02880000  -1.02500000
O9       O    O       0.69800000   0.65540000   0.47120000  -1.02500000
O9       O    O       0.80200000   0.34460000   0.97120000  -1.02500000
O9       O    O       0.30200000   0.15540000   0.52880000  -1.02500000
O9       O    O       0.80200000   0.15540000   0.97120000  -1.02500000
O9       O    O       0.30200000   0.34460000   0.52880000  -1.02500000
O9       O    O       0.19800000   0.65540000   0.02880000  -1.02500000
O9       O    O       0.69800000   0.84460000   0.47120000  -1.02500000
O10      O    O       0.09100000   0.83860000   0.92230000  -1.02500000
O10      O    O       0.59100000   0.66140000   0.57770000  -1.02500000
O10      O    O       0.90900000   0.33860000   0.07770000  -1.02500000
O10      O    O       0.40900000   0.16140000   0.42230000  -1.02500000
O10      O    O       0.90900000   0.16140000   0.07770000  -1.02500000
O10      O    O       0.40900000   0.33860000   0.42230000  -1.02500000
O10      O    O       0.09100000   0.66140000   0.92230000  -1.02500000
O10      O    O       0.59100000   0.83860000   0.57770000  -1.02500000
O11      O    O       0.11690000   0.84220000   0.73060000  -1.02500000
O11      O    O       0.61690000   0.65780000   0.76940000  -1.02500000
O11      O    O       0.88310000   0.34220000   0.26940000  -1.02500000
O11      O    O       0.38310000   0.15780000   0.23060000  -1.02500000
O11      O    O       0.88310000   0.15780000   0.26940000  -1.02500000
O11      O    O       0.38310000   0.34220000   0.23060000  -1.02500000
O11      O    O       0.11690000   0.65780000   0.73060000  -1.02500000
O11      O    O       0.61690000   0.84220000   0.76940000  -1.02500000
O12      O    O       0.24480000   0.84060000   0.75780000  -1.02500000
O12      O    O       0.74480000   0.65940000   0.74220000  -1.02500000
O12      O    O       0.75520000   0.34060000   0.24220000  -1.02500000
O12      O    O       0.25520000   0.15940000   0.25780000  -1.02500000
O12      O    O       0.75520000   0.15940000   0.24220000  -1.02500000
O12      O    O       0.25520000   0.34060000   0.25780000  -1.02500000
O12      O    O       0.24480000   0.65940000   0.75780000  -1.02500000
O12      O    O       0.74480000   0.84060000   0.74220000  -1.02500000
O13      O    O       0.30470000   0.94900000   0.81340000  -1.02500000
O13      O    O       0.80470000   0.55100000   0.68660000  -1.02500000
O13      O    O       0.69530000   0.44900000   0.18660000  -1.02500000
O13      O    O       0.19530000   0.05100000   0.31340000  -1.02500000
O13      O    O       0.69530000   0.05100000   0.18660000  -1.02500000
O13      O    O       0.19530000   0.44900000   0.31340000  -1.02500000
O13      O    O       0.30470000   0.55100000   0.81340000  -1.02500000
O13      O    O       0.80470000   0.94900000   0.68660000  -1.02500000
O14      O    O       0.07680000   0.94810000   0.82310000  -1.02500000
O14      O    O       0.57680000   0.55190000   0.67690000  -1.02500000
O14      O    O       0.92320000   0.44810000   0.17690000  -1.02500000
O14      O    O       0.42320000   0.05190000   0.32310000  -1.02500000
O14      O    O       0.92320000   0.05190000   0.17690000  -1.02500000
O14      O    O       0.42320000   0.44810000   0.32310000  -1.02500000
O14      O    O       0.07680000   0.55190000   0.82310000  -1.02500000
O14      O    O       0.57680000   0.94810000   0.67690000  -1.02500000
O15      O    O       0.41610000   0.12760000   0.61040000  -1.02500000
O15      O    O       0.91610000   0.37240000   0.88960000  -1.02500000
O15      O    O       0.58390000   0.62760000   0.38960000  -1.02500000
O15      O    O       0.08390000   0.87240000   0.11040000  -1.02500000
O15      O    O       0.58390000   0.87240000   0.38960000  -1.02500000
O15      O    O       0.08390000   0.62760000   0.11040000  -1.02500000
O15      O    O       0.41610000   0.37240000   0.61040000  -1.02500000
O15      O    O       0.91610000   0.12760000   0.88960000  -1.02500000
O16      O    O       0.40860000   0.99830000   0.58640000  -1.02500000
O16      O    O       0.90860000   0.50170000   0.91360000  -1.02500000
O16      O    O       0.59140000   0.49830000   0.41360000  -1.02500000
O16      O    O       0.09140000   0.00170000   0.08640000  -1.02500000
O16      O    O       0.59140000   0.00170000   0.41360000  -1.02500000
O16      O    O       0.09140000   0.49830000   0.08640000  -1.02500000
O16      O    O       0.40860000   0.50170000   0.58640000  -1.02500000
O16      O    O       0.90860000   0.99830000   0.91360000  -1.02500000
O17      O    O       0.40200000   0.86860000   0.57610000  -1.02500000
O17      O    O       0.90200000   0.63140000   0.92390000  -1.02500000
O17      O    O       0.59800000   0.36860000   0.42390000  -1.02500000
O17      O    O       0.09800000   0.13140000   0.07610000  -1.02500000
O17      O    O       0.59800000   0.13140000   0.42390000  -1.02500000
O17      O    O       0.09800000   0.36860000   0.07610000  -1.02500000
O17      O    O       0.40200000   0.63140000   0.57610000  -1.02500000
O17      O    O       0.90200000   0.86860000   0.92390000  -1.02500000
O18      O    O       0.18860000   0.12980000   0.61640000  -1.02500000
O18      O    O       0.68860000   0.37020000   0.88360000  -1.02500000
O18      O    O       0.81140000   0.62980000   0.38360000  -1.02500000
O18      O    O       0.31140000   0.87020000   0.11640000  -1.02500000
O18      O    O       0.81140000   0.87020000   0.38360000  -1.02500000
O18      O    O       0.31140000   0.62980000   0.11640000  -1.02500000
O18      O    O       0.18860000   0.37020000   0.61640000  -1.02500000
O18      O    O       0.68860000   0.12980000   0.88360000  -1.02500000
O19      O    O       0.19400000   0.00070000   0.59180000  -1.02500000
O19      O    O       0.69400000   0.49930000   0.90820000  -1.02500000
O19      O    O       0.80600000   0.50070000   0.40820000  -1.02500000
O19      O    O       0.30600000   0.99930000   0.09180000  -1.02500000
O19      O    O       0.80600000   0.99930000   0.40820000  -1.02500000
O19      O    O       0.30600000   0.50070000   0.09180000  -1.02500000
O19      O    O       0.19400000   0.49930000   0.59180000  -1.02500000
O19      O    O       0.69400000   0.00070000   0.90820000  -1.02500000
O20      O    O       0.19510000   0.87090000   0.58100000  -1.02500000
O20      O    O       0.69510000   0.62910000   0.91900000  -1.02500000
O20      O    O       0.80490000   0.37090000   0.41900000  -1.02500000
O20      O    O       0.30490000   0.12910000   0.08100000  -1.02500000
O20      O    O       0.80490000   0.12910000   0.41900000  -1.02500000
O20      O    O       0.30490000   0.37090000   0.08100000  -1.02500000
O20      O    O       0.19510000   0.62910000   0.58100000  -1.02500000
O20      O    O       0.69510000   0.87090000   0.91900000  -1.02500000
O21      O    O       0.99630000   0.05020000   0.79200000  -1.02500000
O21      O    O       0.49630000   0.44980000   0.70800000  -1.02500000
O21      O    O       0.00370000   0.55020000   0.20800000  -1.02500000
O21      O    O       0.50370000   0.94980000   0.29200000  -1.02500000
O21      O    O       0.00370000   0.94980000   0.20800000  -1.02500000
O21      O    O       0.50370000   0.55020000   0.29200000  -1.02500000
O21      O    O       0.99630000   0.44980000   0.79200000  -1.02500000
O21      O    O       0.49630000   0.05020000   0.70800000  -1.02500000
O22      O    O       0.99600000   0.84720000   0.79220000  -1.02500000
O22      O    O       0.49600000   0.65280000   0.70780000  -1.02500000
O22      O    O       0.00400000   0.34720000   0.20780000  -1.02500000
O22      O    O       0.50400000   0.15280000   0.29220000  -1.02500000
O22      O    O       0.00400000   0.15280000   0.20780000  -1.02500000
O22      O    O       0.50400000   0.34720000   0.29220000  -1.02500000
O22      O    O       0.99600000   0.65280000   0.79220000  -1.02500000
O22      O    O       0.49600000   0.84720000   0.70780000  -1.02500000
O23      O    O       0.58080000   0.25000000   0.35400000  -1.02500000
O23      O    O       0.08080000   0.25000000   0.14600000  -1.02500000
O23      O    O       0.41920000   0.75000000   0.64600000  -1.02500000
O23      O    O       0.91920000   0.75000000   0.85400000  -1.02500000
O24      O    O       0.81160000   0.25000000   0.35380000  -1.02500000
O24      O    O       0.31160000   0.25000000   0.14620000  -1.02500000
O24      O    O       0.18840000   0.75000000   0.64620000  -1.02500000
O24      O    O       0.68840000   0.75000000   0.85380000  -1.02500000
O25      O    O       0.71170000   0.25000000   0.94210000  -1.02500000
O25      O    O       0.21170000   0.25000000   0.55790000  -1.02500000
O25      O    O       0.28830000   0.75000000   0.05790000  -1.02500000
O25      O    O       0.78830000   0.75000000   0.44210000  -1.02500000
O26      O    O       0.89150000   0.25000000   0.93890000  -1.02500000
O26      O    O       0.39150000   0.25000000   0.56110000  -1.02500000
O26      O    O       0.10850000   0.75000000   0.06110000  -1.02500000
O26      O    O       0.60850000   0.75000000   0.43890000  -1.02500000
