# Generated by REPEAT Assigner based on pymatgen
calf-20_methyl
_audit_creation_date              2025-09-13
_audit_creation_method            REPEAT_Assigner
_cell_length_a                    8.758110
_cell_length_b                    8.342010
_cell_length_c                    10.275210
_cell_angle_alpha                 90.000000
_cell_angle_beta                  100.831000
_cell_angle_gamma                 90.000000
_cell_volume                      737.335978
_symmetry_space_group_name_H-M    P1
_symmetry_Int_Tables_number       1
loop_
    _symmetry_equiv_pos_site_id
    _symmetry_equiv_pos_as_xyz
    1  x,y,z
loop_
    _atom_site_type_symbol
    _atom_site_label
    _atom_site_fract_x
    _atom_site_fract_y
    _atom_site_fract_z
    _atom_site_charge
    Zn  Zn1  0.681590  0.058210  0.930290  0.860769
    Zn  Zn2  0.318410  0.558210  0.569710  0.860743
    Zn  Zn3  0.318410  0.941790  0.069710  0.860739
    Zn  Zn4  0.681590  0.441790  0.430290  0.860752
    O   O1   0.090710  0.816990  0.019210  -0.578666
    O   O2   0.909290  0.316990  0.480790  -0.578668
    O   O3   0.909290  0.183010  0.980790  -0.578656
    O   O4   0.090710  0.683010  0.519210  -0.578669
    O   O5   0.841390  0.875390  0.961890  -0.532921
    O   O6   0.158610  0.375390  0.538110  -0.532901
    O   O7   0.158610  0.124610  0.038110  -0.532883
    O   O8   0.841390  0.624610  0.461890  -0.532925
    N   N1   0.625490  0.277210  0.284210  -0.382762
    N   N2   0.374510  0.777210  0.215790  -0.382748
    N   N3   0.374510  0.722790  0.715790  -0.382740
    N   N4   0.625490  0.222790  0.784210  -0.382756
    N   N5   0.623690  0.132610  0.102610  -0.300826
    N   N6   0.376310  0.632610  0.397390  -0.300754
    N   N7   0.376310  0.867390  0.897390  -0.300767
    N   N8   0.623690  0.367390  0.602610  -0.300747
    N   N9   0.488590  0.104410  0.146210  -0.229709
    N   N10  0.511410  0.604410  0.353790  -0.229721
    N   N11  0.511410  0.895590  0.853790  -0.229691
    N   N12  0.488590  0.395590  0.646210  -0.229741
    C   C1   0.708190  0.237310  0.184410  0.127085
    C   C2   0.291810  0.737310  0.315590  0.127033
    C   C3   0.291810  0.762690  0.815590  0.127069
    C   C4   0.708190  0.262690  0.684410  0.127016
    H   H1   0.821113  0.282853  0.173848  0.134050
    H   H2   0.178887  0.782853  0.326152  0.134060
    H   H3   0.178887  0.717147  0.826152  0.134045
    H   H4   0.821113  0.217147  0.673848  0.134065
    C   C5   0.491390  0.191810  0.256010  0.440543
    C   C6   0.508610  0.691810  0.243990  0.440533
    C   C7   0.508610  0.808190  0.743990  0.440480
    C   C8   0.491390  0.308190  0.756010  0.440582
    C   C9   0.362890  0.195310  0.335910  -0.559688
    C   C10  0.637110  0.695310  0.164090  -0.559680
    C   C11  0.637110  0.804690  0.664090  -0.559636
    C   C12  0.362890  0.304690  0.835910  -0.559756
    C   C13  0.980390  0.908990  0.991490  0.534290
    C   C14  0.019610  0.408990  0.508510  0.534264
    C   C15  0.019610  0.091010  0.008510  0.534244
    C   C16  0.980390  0.591010  0.491490  0.534290
    H   H5   0.405591  0.154967  0.437989  0.154321
    H   H6   0.594409  0.654967  0.062011  0.154315
    H   H7   0.594409  0.845033  0.562011  0.154309
    H   H8   0.405591  0.345033  0.937989  0.154326
    H   H9   0.266383  0.118573  0.289784  0.158135
    H   H10  0.733617  0.618573  0.210216  0.158132
    H   H11  0.733617  0.881427  0.710216  0.158123
    H   H12  0.266383  0.381427  0.789784  0.158157
    H   H13  0.318424  0.317656  0.340588  0.175381
    H   H14  0.681576  0.817656  0.159412  0.175392
    H   H15  0.681576  0.682344  0.659412  0.175378
    H   H16  0.318424  0.182344  0.840588  0.175392
