# Generated by REPEAT Assigner based on pymatgen
cpl-1
_audit_creation_date              2025-09-09
_audit_creation_method            REPEAT_Assigner
_cell_length_a                    4.813524
_cell_length_b                    20.235502
_cell_length_c                    10.716461
_cell_angle_alpha                 90.000000
_cell_angle_beta                  96.936611
_cell_angle_gamma                 90.000000
_cell_volume                      1036.186527
_symmetry_space_group_name_H-M    P1
_symmetry_Int_Tables_number       1
loop_
    _symmetry_equiv_pos_site_id
    _symmetry_equiv_pos_as_xyz
    1  x,y,z
loop_
    _atom_site_type_symbol
    _atom_site_label
    _atom_site_fract_x
    _atom_site_fract_y
    _atom_site_fract_z
    _atom_site_charge
    Cu  Cu1  0.463520  0.337013  0.588038  0.468448
    Cu  Cu2  0.463520  0.162987  0.088038  0.468445
    Cu  Cu3  0.536480  0.662987  0.411962  0.469214
    Cu  Cu4  0.536480  0.837013  0.911962  0.469244
    O   O1   0.621080  0.360455  0.756620  -0.522660
    O   O2   0.621080  0.139545  0.256620  -0.522655
    O   O3   0.378920  0.639545  0.243380  -0.522847
    O   O4   0.378920  0.860455  0.743380  -0.522875
    O   O5   0.887880  0.317627  0.921720  -0.544861
    O   O6   0.887880  0.182373  0.421720  -0.544858
    O   O7   0.112120  0.682373  0.078280  -0.545179
    O   O8   0.112120  0.817627  0.578280  -0.545189
    O   O9   0.251350  0.187720  0.920030  -0.415027
    O   O10  0.251350  0.312280  0.420030  -0.415022
    O   O11  0.748650  0.812280  0.079970  -0.418986
    O   O12  0.748650  0.687720  0.579970  -0.418963
    O   O13  0.896960  0.169920  0.037020  -0.397361
    O   O14  0.896960  0.330080  0.537020  -0.397356
    O   O15  0.103040  0.830080  0.962980  -0.396549
    O   O16  0.103040  0.669920  0.462980  -0.396521
    N   N1   0.512440  0.245952  0.659510  -0.060832
    N   N2   0.512440  0.254048  0.159510  -0.060832
    N   N3   0.487560  0.754048  0.340490  -0.061214
    N   N4   0.487560  0.745952  0.840490  -0.061228
    N   N5   0.731390  0.128154  0.764730  -0.384032
    N   N6   0.731390  0.371846  0.264730  -0.384030
    N   N7   0.268610  0.871846  0.235270  -0.384201
    N   N8   0.268610  0.628154  0.735270  -0.384184
    N   N9   0.455850  0.436614  0.539920  -0.078631
    N   N10  0.455850  0.063386  0.039920  -0.078634
    N   N11  0.544150  0.563386  0.460080  -0.078932
    N   N12  0.544150  0.936614  0.960080  -0.078936
    C   C1   0.707650  0.246003  0.762520  -0.216141
    C   C2   0.707650  0.253997  0.262520  -0.216137
    C   C3   0.292350  0.753997  0.237480  -0.216043
    C   C4   0.292350  0.746003  0.737480  -0.216016
    C   C5   0.799460  0.187254  0.823720  0.421274
    C   C6   0.799460  0.312746  0.323720  0.421264
    C   C7   0.200540  0.812746  0.176280  0.420980
    C   C8   0.200540  0.687254  0.676280  0.420930
    C   C9   0.554100  0.130654  0.655940  0.123606
    C   C10  0.554100  0.369346  0.155940  0.123606
    C   C11  0.445900  0.869346  0.344060  0.124121
    C   C12  0.445900  0.630654  0.844060  0.124126
    C   C13  0.444670  0.191322  0.606820  0.091319
    C   C14  0.444670  0.308678  0.106820  0.091327
    C   C15  0.555330  0.808678  0.393180  0.091730
    C   C16  0.555330  0.691322  0.893180  0.091743
    C   C17  0.739100  0.313325  0.819430  0.649486
    C   C18  0.739100  0.186675  0.319430  0.649482
    C   C19  0.260900  0.686675  0.180570  0.649878
    C   C20  0.260900  0.813325  0.680570  0.649902
    C   C21  0.000000  0.180047  0.942310  0.434101
    C   C22  0.000000  0.319953  0.442310  0.434097
    C   C23  0.000950  0.819953  0.057690  0.437346
    C   C24  0.000950  0.680047  0.557690  0.437324
    C   C25  0.641330  0.476613  0.596110  0.013297
    C   C26  0.641330  0.023387  0.096110  0.013301
    C   C27  0.358670  0.523387  0.403890  0.013289
    C   C28  0.358670  0.976613  0.903890  0.013263
    C   C29  0.304740  0.459695  0.436310  0.083247
    C   C30  0.304740  0.040305  0.936310  0.083265
    C   C31  0.695260  0.540305  0.563690  0.083379
    C   C32  0.695260  0.959695  0.063690  0.083380
    H   H1   0.498806  0.084136  0.607804  0.083149
    H   H2   0.498806  0.415864  0.107804  0.083150
    H   H3   0.501189  0.915865  0.392198  0.083076
    H   H4   0.501189  0.584135  0.892198  0.083071
    H   H5   0.294705  0.190987  0.521119  0.112333
    H   H6   0.294705  0.309013  0.021119  0.112330
    H   H7   0.705293  0.809006  0.478887  0.112064
    H   H8   0.705293  0.690994  0.978887  0.112054
    H   H9   0.764716  0.455837  0.679526  0.119028
    H   H10  0.764716  0.044163  0.179526  0.119029
    H   H11  0.235281  0.544160  0.320471  0.118958
    H   H12  0.235281  0.955840  0.820471  0.118978
    H   H13  0.147015  0.429661  0.381616  0.020218
    H   H14  0.147015  0.070339  0.881616  0.020214
    H   H15  0.852929  0.570355  0.618384  0.019934
    H   H16  0.852929  0.929645  0.118384  0.019932
